[config loop_net]
runType=single-machine;         # "serial" or "single-machine" or "multi-machine" or "debug"
channelType=normal;     # "normal" or "onlyDelay"
sim-time-limit=100000ns;
clockCycle=2ns;
channelDelay=2ns;
routingFunc=flood;    # "flood" or "shortestPath"
totalRouterNum=16;
totalCoreNum=30;
routerGateNum=9;
coreGateNum=1;
readNedStyle="line_by_line"; # "line_by_line" or "one_off_reading"
packetFlits=5;
totalChannelNum=87;
procNum=4;
partitionNum=4;
randomStyle=uniform;
Router[0..3].partition-id=0;
Core[0..7].partition-id=0;
Router[4..7].partition-id=1;
Core[8..14].partition-id=1;
Router[8..11].partition-id=2;
Core[15..22].partition-id=2;
Router[12..15].partition-id=3;
Core[23..29].partition-id=3;
[config clientServerNet]
