[config loop_net]
runType=serial;         # "serial" or "single-machine" or "multi-machine" or "debug"
channelType=normal;     # "normal" or "onlyDelay"
sim-time-limit=100000ns;
clockCycle=2ns;
channelDelay=2ns;
routingFunc=flood;    # "flood" or "shortestPath"
totalRouterNum=16;
totalCoreNum=30;
routerGateNum=9;
coreGateNum=1;
readNedStyle="line_by_line"; # "line_by_line" or "one_off_reading"
packetFlits=5;
totalChannelNum=87;
[config clientServerNet]
