[config loop_net]
runType=single-machine;         # "serial" or "single-machine" or "multi-machine" or "debug"
channelType=normal;     # "normal" or "onlyDelay"
sim-time-limit=100000ns;
clockCycle=2ns;
channelDelay=2ns;
routingFunc=flood;    # "flood" or "shortestPath"
totalRouterNum=16;
totalCoreNum=30;
routerGateNum=9;
coreGateNum=1;
readNedStyle="line_by_line"; # "line_by_line" or "one_off_reading"
packetFlits=5;
totalChannelNum=87;
procNum=3;
partitionNum=3;
randomStyle=uniform;
Router[0..4].partition-id=0;
Core[0..9].partition-id=0;
Router[5..9].partition-id=1;
Core[10..19].partition-id=1;
Router[10..15].partition-id=2;
Core[20..29].partition-id=2;
[config clientServerNet]
